*SPEF "ieee 1481-1999"
*DESIGN "iiitb_siso"
*DATE "11:11:11 Fri 11 11, 1111"
*VENDOR "OpenRCX"
*PROGRAM "Parallel Extraction"
*VERSION "1.0"
*DESIGN_FLOW "NAME_SCOPE LOCAL" "PIN_CAP NONE"
*DIVIDER /
*DELIMITER :
*BUS_DELIMITER []
*T_UNIT 1 NS
*C_UNIT 1 PF
*R_UNIT 1 OHM
*L_UNIT 1 HENRY

*NAME_MAP
*3 clk
*4 d
*5 q
*6 a\.q
*7 b\.q
*8 c\.q
*9 clknet_0_clk
*10 clknet_1_0__leaf_clk
*11 clknet_1_1__leaf_clk
*12 net1
*13 net2
*14 net3
*15 net4
*16 net5
*17 FILLER_0_15
*18 FILLER_0_27
*19 FILLER_0_29
*20 FILLER_0_3
*21 FILLER_0_41
*22 FILLER_0_53
*23 FILLER_0_57
*24 FILLER_0_69
*25 FILLER_0_81
*26 FILLER_0_85
*27 FILLER_10_15
*28 FILLER_10_27
*29 FILLER_10_29
*30 FILLER_10_3
*31 FILLER_10_41
*32 FILLER_10_65
*33 FILLER_10_77
*34 FILLER_10_83
*35 FILLER_10_85
*36 FILLER_11_15
*37 FILLER_11_27
*38 FILLER_11_3
*39 FILLER_11_33
*40 FILLER_11_54
*41 FILLER_11_57
*42 FILLER_11_67
*43 FILLER_11_79
*44 FILLER_11_85
*45 FILLER_12_15
*46 FILLER_12_27
*47 FILLER_12_29
*48 FILLER_12_3
*49 FILLER_12_41
*50 FILLER_12_53
*51 FILLER_12_65
*52 FILLER_12_77
*53 FILLER_12_83
*54 FILLER_12_85
*55 FILLER_13_15
*56 FILLER_13_27
*57 FILLER_13_3
*58 FILLER_13_39
*59 FILLER_13_51
*60 FILLER_13_55
*61 FILLER_13_57
*62 FILLER_13_69
*63 FILLER_13_81
*64 FILLER_13_85
*65 FILLER_14_15
*66 FILLER_14_20
*67 FILLER_14_29
*68 FILLER_14_3
*69 FILLER_14_41
*70 FILLER_14_53
*71 FILLER_14_57
*72 FILLER_14_76
*73 FILLER_14_85
*74 FILLER_1_15
*75 FILLER_1_27
*76 FILLER_1_3
*77 FILLER_1_39
*78 FILLER_1_51
*79 FILLER_1_55
*80 FILLER_1_57
*81 FILLER_1_69
*82 FILLER_1_81
*83 FILLER_1_85
*84 FILLER_2_15
*85 FILLER_2_27
*86 FILLER_2_29
*87 FILLER_2_3
*88 FILLER_2_41
*89 FILLER_2_53
*90 FILLER_2_65
*91 FILLER_2_77
*92 FILLER_2_83
*93 FILLER_2_85
*94 FILLER_3_15
*95 FILLER_3_27
*96 FILLER_3_3
*97 FILLER_3_39
*98 FILLER_3_51
*99 FILLER_3_55
*100 FILLER_3_57
*101 FILLER_3_69
*102 FILLER_3_81
*103 FILLER_3_85
*104 FILLER_4_15
*105 FILLER_4_27
*106 FILLER_4_29
*107 FILLER_4_3
*108 FILLER_4_41
*109 FILLER_4_53
*110 FILLER_4_65
*111 FILLER_4_77
*112 FILLER_4_83
*113 FILLER_4_85
*114 FILLER_5_15
*115 FILLER_5_3
*116 FILLER_5_36
*117 FILLER_5_48
*118 FILLER_5_57
*119 FILLER_5_69
*120 FILLER_5_77
*121 FILLER_5_84
*122 FILLER_6_15
*123 FILLER_6_27
*124 FILLER_6_29
*125 FILLER_6_3
*126 FILLER_6_41
*127 FILLER_6_53
*128 FILLER_6_65
*129 FILLER_6_77
*130 FILLER_6_83
*131 FILLER_6_85
*132 FILLER_7_11
*133 FILLER_7_29
*134 FILLER_7_3
*135 FILLER_7_41
*136 FILLER_7_53
*137 FILLER_7_57
*138 FILLER_7_69
*139 FILLER_7_81
*140 FILLER_7_85
*141 FILLER_8_15
*142 FILLER_8_27
*143 FILLER_8_29
*144 FILLER_8_3
*145 FILLER_8_41
*146 FILLER_8_53
*147 FILLER_8_65
*148 FILLER_8_77
*149 FILLER_8_83
*150 FILLER_8_85
*151 FILLER_9_15
*152 FILLER_9_27
*153 FILLER_9_3
*154 FILLER_9_35
*155 FILLER_9_54
*156 FILLER_9_57
*157 FILLER_9_80
*158 PHY_0
*159 PHY_1
*160 PHY_10
*161 PHY_11
*162 PHY_12
*163 PHY_13
*164 PHY_14
*165 PHY_15
*166 PHY_16
*167 PHY_17
*168 PHY_18
*169 PHY_19
*170 PHY_2
*171 PHY_20
*172 PHY_21
*173 PHY_22
*174 PHY_23
*175 PHY_24
*176 PHY_25
*177 PHY_26
*178 PHY_27
*179 PHY_28
*180 PHY_29
*181 PHY_3
*182 PHY_4
*183 PHY_5
*184 PHY_6
*185 PHY_7
*186 PHY_8
*187 PHY_9
*188 TAP_30
*189 TAP_31
*190 TAP_32
*191 TAP_33
*192 TAP_34
*193 TAP_35
*194 TAP_36
*195 TAP_37
*196 TAP_38
*197 TAP_39
*198 TAP_40
*199 TAP_41
*200 TAP_42
*201 TAP_43
*202 TAP_44
*203 TAP_45
*204 TAP_46
*205 TAP_47
*206 TAP_48
*207 TAP_49
*208 TAP_50
*209 TAP_51
*210 TAP_52
*211 TAP_53
*212 TAP_54
*213 _0_
*214 _1_
*215 _2_
*216 _3_
*217 clkbuf_0_clk
*218 clkbuf_1_0__f_clk
*219 clkbuf_1_1__f_clk
*220 hold1
*221 hold2
*222 hold3
*223 input1
*224 output2

*PORTS
clk I
d I
q O

*D_NET *3 0.00512097
*CONN
*P clk I
*I *217:A I *D sky130_fd_sc_hd__clkbuf_16
*CAP
1 clk 0.00151456
2 *217:A 0.00104593
3 *3:10 0.00256048
4 *217:A *215:CLK 0
5 *217:A *218:A 0
6 *217:A *222:A 0
7 *217:A *9:10 0
*RES
1 clk *3:10 41.6071 
2 *3:10 *217:A 37.4429 
*END

*D_NET *4 0.0008919
*CONN
*P d I
*I *223:A I *D sky130_fd_sc_hd__buf_1
*CAP
1 d 0.00044595
2 *223:A 0.00044595
*RES
1 d *223:A 23.9429 
*END

*D_NET *5 0.000681447
*CONN
*P q O
*I *224:X O *D sky130_fd_sc_hd__buf_4
*CAP
1 q 0.000340724
2 *224:X 0.000340724
*RES
1 *224:X q 19.6975 
*END

*D_NET *6 0.00172043
*CONN
*I *222:A I *D sky130_fd_sc_hd__dlygate4sd3_1
*I *213:Q O *D sky130_fd_sc_hd__dfxtp_2
*CAP
1 *222:A 0.000860214
2 *213:Q 0.000860214
3 *222:A *218:A 0
4 *217:A *222:A 0
*RES
1 *213:Q *222:A 46.475 
*END

*D_NET *7 0.00076383
*CONN
*I *221:A I *D sky130_fd_sc_hd__dlygate4sd3_1
*I *214:Q O *D sky130_fd_sc_hd__dfxtp_2
*CAP
1 *221:A 0.000381915
2 *214:Q 0.000381915
*RES
1 *214:Q *221:A 35.9036 
*END

*D_NET *8 0.000645832
*CONN
*I *220:A I *D sky130_fd_sc_hd__dlygate4sd3_1
*I *215:Q O *D sky130_fd_sc_hd__dfxtp_2
*CAP
1 *220:A 0.000322916
2 *215:Q 0.000322916
3 *220:A *215:D 0
*RES
1 *215:Q *220:A 34.6714 
*END

*D_NET *9 0.00173323
*CONN
*I *219:A I *D sky130_fd_sc_hd__clkbuf_16
*I *218:A I *D sky130_fd_sc_hd__clkbuf_16
*I *217:X O *D sky130_fd_sc_hd__clkbuf_16
*CAP
1 *219:A 0
2 *218:A 0.000715934
3 *217:X 0.00015068
4 *9:10 0.000866614
5 *218:A *215:CLK 0
6 *9:10 *215:D 0
7 *217:A *218:A 0
8 *217:A *9:10 0
9 *222:A *218:A 0
*RES
1 *217:X *9:10 21.6036 
2 *9:10 *218:A 34.1929 
3 *9:10 *219:A 9.3 
*END

*D_NET *10 0.00185186
*CONN
*I *215:CLK I *D sky130_fd_sc_hd__dfxtp_2
*I *213:CLK I *D sky130_fd_sc_hd__dfxtp_2
*I *218:X O *D sky130_fd_sc_hd__clkbuf_16
*CAP
1 *215:CLK 0.000516397
2 *213:CLK 0.000203639
3 *218:X 0.000205893
4 *10:8 0.000925929
5 *217:A *215:CLK 0
6 *218:A *215:CLK 0
*RES
1 *218:X *10:8 22.9786 
2 *10:8 *213:CLK 13.55 
3 *10:8 *215:CLK 29.4964 
*END

*D_NET *11 0.001228
*CONN
*I *214:CLK I *D sky130_fd_sc_hd__dfxtp_2
*I *216:CLK I *D sky130_fd_sc_hd__dfxtp_2
*I *219:X O *D sky130_fd_sc_hd__clkbuf_16
*CAP
1 *214:CLK 0.000390197
2 *216:CLK 0.000223804
3 *219:X 0
4 *11:5 0.000614001
5 *214:CLK *216:D 0
*RES
1 *219:X *11:5 13.8 
2 *11:5 *216:CLK 18.7286 
3 *11:5 *214:CLK 22.7286 
*END

*D_NET *12 0.00153423
*CONN
*I *213:D I *D sky130_fd_sc_hd__dfxtp_2
*I *223:X O *D sky130_fd_sc_hd__buf_1
*CAP
1 *213:D 0.000767116
2 *223:X 0.000767116
*RES
1 *223:X *213:D 44.9259 
*END

*D_NET *13 0.000981856
*CONN
*I *224:A I *D sky130_fd_sc_hd__buf_4
*I *216:Q O *D sky130_fd_sc_hd__dfxtp_2
*CAP
1 *224:A 0.000490928
2 *216:Q 0.000490928
*RES
1 *216:Q *224:A 38.5464 
*END

*D_NET *14 0.000352974
*CONN
*I *216:D I *D sky130_fd_sc_hd__dfxtp_2
*I *220:X O *D sky130_fd_sc_hd__dlygate4sd3_1
*CAP
1 *216:D 0.000176487
2 *220:X 0.000176487
3 *214:CLK *216:D 0
*RES
1 *220:X *216:D 31.533 
*END

*D_NET *15 0.0012424
*CONN
*I *215:D I *D sky130_fd_sc_hd__dfxtp_2
*I *221:X O *D sky130_fd_sc_hd__dlygate4sd3_1
*CAP
1 *215:D 0.000621202
2 *221:X 0.000621202
3 *220:A *215:D 0
4 *9:10 *215:D 0
*RES
1 *221:X *215:D 41.0687 
*END

*D_NET *16 0.000723826
*CONN
*I *214:D I *D sky130_fd_sc_hd__dfxtp_2
*I *222:X O *D sky130_fd_sc_hd__dlygate4sd3_1
*CAP
1 *214:D 0.000361913
2 *222:X 0.000361913
*RES
1 *222:X *214:D 35.4616 
*END
